/*--------------------------------*- C++ -*----------------------------------*\
| =========                 |                                                 |
| \\      /  F ield         | OpenFOAM: The Open Source CFD Toolbox           |
|  \\    /   O peration     | Version:  5                                     |
|   \\  /    A nd           | Web:      www.OpenFOAM.org                      |
|    \\/     M anipulation  |                                                 |
\*---------------------------------------------------------------------------*/
FoamFile
{
    version     2.0;
    format      ascii;
    class       dictionary;
    location    "constant";
    object      transportProperties;
}
// * * * * * * * * * * * * * * * * * * * * * * * * * * * * * * * * * * * * * //

phases
(
    air
    {
        rho             1;
        nu              1.6e-05;
        kappa           0;
        Cp              0;

        diameterModel   constant;
        constantCoeffs
        {
            d               3e-3;
        }
    }

    water
    {
        rho             1000;
        nu              1e-06;
        kappa           0;
        Cp              0;

        diameterModel constant;
        constantCoeffs
        {
            d               0;
        }
    }
);


sigmas
(
);

interfaceCompression
(
    (air water)    2
);

virtualMass
(
    (air water)    0.5
);

drag
(
    (air water)
    {
        type SchillerNaumann;
        residualPhaseFraction 1e-3;
        residualSlip 1e-3;
    }
);

// This is a dummy to support the Smagorinsky model
transportModel  Newtonian;
nu              [0 2 -1 0 0 0 0] 0;


// ************************************************************************* //
